18
-24.5920590593 converged=true
C  -2.59622963289508179585 0.35335762070308629479 0.31999821905760827967
C  -1.82521023857349828923 0.36791190692638015003 -0.82939353055482767374
C  -0.45356629807159792866 0.21320565223367110574 -0.74975028408858734874
C  0.17139849556208688885 0.04195465418367885779 0.48204583590644850544
C  1.63891068632490366497 -0.11977063780380707569 0.60313332915735828887
C  2.40942843378173154889 -0.91295797107515308522 -0.39209280304146448826
N  2.56173739686043377972 0.51666523913721473793 -0.31595044324709503636
C  -0.61380975972252405093 0.03083067661870926915 1.63105641722754857170
C  -1.98533730153628629189 0.18363857397962315976 1.55097703225467964394
H  -3.66731592237435632953 0.47442388320885031661 0.25629976178350633020
H  -2.29346398366757142639 0.49991520719315069021 -1.79403877666617206366
H  0.12794000005303626799 0.22601515968036295368 -1.66217643782149093745
H  2.00157389001533214667 -0.13365472526957750121 1.62643872259355304344
H  1.87653402251985901295 -1.36105622136737403061 -1.22316348982710132454
H  3.26688964575490947695 -1.47916655685635189954 -0.05422227773540219675
H  2.10105280474294708881 1.02596007574414604946 -1.06483330739007597820
H  -0.14056942676994096941 -0.09941664355567458866 2.59382276008770507048
H  -2.57996381214930625703 0.17214410102729321705 2.45266925919095202246
18
-24.5916729886 converged=true
C  -2.61408203609722855632 0.51363047525194338583 0.42016938510167267662
C  -2.14550005110424324428 0.38435940180832500745 -0.87606815287352390875
C  -0.82517023538448674991 0.04172144846009767649 -1.10637946243853435568
C  0.04114876691719532992 -0.17173834471176072092 -0.04088557620375302126
C  1.46100154027134054857 -0.51318780817868325794 -0.29331404778512915055
C  2.55139611859388981685 0.26967704505595913034 0.34999322562299306494
N  2.22732301894937778641 -1.05558219761696503447 0.80976543850864013407
C  -0.43616893784052163108 -0.04351160316303080006 1.25857638645860658855
C  -1.75672854393794541927 0.29564932062833720883 1.48610883849373132115
H  -3.64556461272564114040 0.77994159979008725880 0.59870462909577903954
H  -2.81094290521763578994 0.54942203993279614682 -1.71105583426514051837
H  -0.46273962176973804095 -0.06007473486609787861 -2.11999375303653714298
H  1.65755622294036619735 -0.88722057403952825361 -1.29712419627009278855
H  2.27876731085002903754 1.06251957900078597419 1.03359034932724425104
H  3.46764663543665152545 0.44604193390742613579 -0.20307658894256361282
H  2.89484163822842477387 -1.77152238966454711466 0.54244109074524093916
H  0.23774704547569824875 -0.22984970017347014504 2.08030723271486683856
H  -2.12053234843868532167 0.38972451916186834353 2.49906104380073124105
18
-24.5894444324 converged=true
C  -2.59661625468549273066 0.35763744789906842803 0.36440262513066090655
C  -1.96147698973072337481 1.01194156481309871509 -0.67805106716547114409
C  -0.58333097401501865509 0.97755258855443138977 -0.78063909342832549232
C  0.18127806325422840539 0.28594418217964084894 0.15504698871647021319
C  1.65903145014121111700 0.25620249787862298119 -0.02131125973052555578
C  2.52219613832964073552 -0.79230364398042951724 0.56517438801515207381
N  2.27591416456727202444 -0.76130360207675662476 -0.85883846711950928565
C  -0.46447734639291771153 -0.36227098660525142160 1.20085724494196122158
C  -1.84445436625953718135 -0.32591366164217727697 1.30355977246670695635
H  -3.67313091300086469460 0.38361651462096452159 0.44621738566168933637
H  -2.54138541988023813900 1.55050304972825858663 -1.41321191270216717228
H  -0.08739609159280155304 1.48532894729336861772 -1.59538119999174199393
H  2.10379196836583437502 1.23669838519807728794 -0.17382397647929254125
H  2.08197957133502242755 -1.58066648073659710150 1.16298212226884212228
H  3.53230218001452112020 -0.53120269829999777755 0.85207815024386812652
H  1.61913956265406944190 -1.47154833425835307459 -1.17116206715071280442
H  0.10983629646920391176 -0.88786279889089880779 1.94971130488507760070
H  -2.33320203442655893511 -0.83235297167507060756 2.12320906949154908361
18
-24.5875938850 converged=true
C  -2.66071292091420907866 0.40439877703416549082 0.33323647731110855874
C  -2.01695547249125084477 -0.02242418823742333214 -0.81494551634261980233
C  -0.65973645008876014018 -0.29319403434799506947 -0.79485156291235137260
C  0.07045920335509772703 -0.14047167425186840584 0.37581801562698813335
C  1.53189030521386038153 -0.42251621728594990213 0.45466455100108127407
C  2.42738200611369592252 -0.44357400268844277003 -0.72300727266974607055
N  2.43806964948197535392 0.67950168847728642518 0.18238495701010426497
C  -0.58614002988182201115 0.28174654946923644028 1.52737231332901446379
C  -1.94098829169891029522 0.55535060840000727289 1.50647316714108825408
H  -3.71958093955286406285 0.61672520164788668939 0.31501042126017525513
H  -2.57449681258391249727 -0.14656430191044950151 -1.73200759933483761088
H  -0.17182566131494869666 -0.63450342072363541401 -1.69534697001765533031
H  1.79125526149893854466 -1.08676237267593833735 1.28036693883169361285
H  2.03035775155583930740 -0.21710357419144099556 -1.70221119159133627008
H  3.25871337484346623725 -1.14122145816566766818 -0.73022686162919292485
H  3.24370048442276948109 0.72336679182559604495 0.79814486369013937228
H  -0.02422626016456188441 0.40084446807017781733 2.44271670504346483099
H  -2.43716619264755385288 0.88640117542977203691 2.40722856701533860502
