18
Coordinates from ORCA-job input E -364.551519736116
  C          -2.66062083976099      0.42178070263873      0.32320893307161
  C          -2.23790785032690     -0.55578771434406     -0.57736610844602
  C          -0.89063200209219     -0.90649968387654     -0.64549222422337
  C           0.04788273649760     -0.28481048538367      0.18408020593902
  C           1.49357028286238     -0.64248526930580      0.07660951215001
  C           2.51842509141474      0.37149980061321     -0.30242372300699
  N           2.39888606370255     -0.08899217739450      1.06586985302084
  C          -0.38198105382051      0.68986026096678      1.09029681299470
  C          -1.72898631302756      1.04137213098080      1.15676712471904
  H          -3.71509091084008      0.69647925279893      0.37859486963206
  H          -2.96136977963007     -1.04925615954480     -1.22850937344232
  H          -0.56166161680450     -1.67385694172772     -1.35051262268228
  H           1.68272827957072     -1.66153503648733     -0.27798776877240
  H           2.19384707878237      1.40118316770369     -0.47720027470562
  H           3.36733429498554      0.04026932471951     -0.90748331382187
  H           3.13295275865208     -0.75092606284559      1.30632320005423
  H           0.35815188608546      1.15089287293532      1.74672078785138
  H          -2.05552910110378      1.80081203342835      1.86932411243042
