18
Coordinates from ORCA-job input E -364.549730217798
  C          -2.60252439229563      0.34816901517186      0.31130410379019
  C          -1.81619706753138      0.36723383006089     -0.84114176363625
  C          -0.43478749993316      0.21906194158022     -0.74950221699111
  C           0.18764857468375      0.04868482301169      0.49432764325631
  C           1.66623135860957     -0.11688012674397      0.61764186318717
  C           2.40988884007991     -0.91234874642310     -0.39886011249545
  N           2.56875388667993      0.52302365233375     -0.32437463832906
  C          -0.61034880946021      0.03520063670998      1.64275835222599
  C          -1.99391513445871      0.18140408768218      1.55381410761823
  H          -3.68461744559101      0.46515525510861      0.23967462232967
  H          -2.28212452724624      0.49817783645742     -1.81904425493374
  H           0.16268086528061      0.23424811117128     -1.66550812031091
  H           2.02913183524751     -0.12599094610884      1.64979348744112
  H           1.81109302291314     -1.34774044945859     -1.20534339501041
  H           3.28248345818731     -1.50017932433231     -0.10225722946821
  H           2.04234073038285      1.00325231660204     -1.05321533919576
  H          -0.13688412948152     -0.08887918008010      2.61894454473068
  H          -2.59885456621162      0.16840726196522      2.46180833267868
